/*--------------------------------*- C++ -*----------------------------------*\
  =========                 |
  \\      /  F ield         | OpenFOAM: The Open Source CFD Toolbox
   \\    /   O peration     | Website:  https://openfoam.org
    \\  /    A nd           | Version:  7  
     \\/     M anipulation  |
\*---------------------------------------------------------------------------*/
FoamFile
{
    version     2.0;
    format      ascii;
    class       dictionary;
    object      snappyHexMeshDict;
}

// * * * * * * * * * * * * * * * * * * * * * * * * * * * * * * * * * * * * * //
//  buildings outline (input in BlockMesh)
// (1470 1375 10) (2700 2550 76)
//x_min 1470;
//y_min 1375;
//z_min  10;
//x_max  2700;
//y_max  2550;
//z_max 76;  //heighest building 
//K 1;

// box refinement definition from closest to the buildings to furthest
// box 1
//x1_min #calc "$x_min - 0.5*$K*$z_max";
//x1_max #calc "$x_max + 0.5*$K*$z_max";
//y1_min #calc "$y_min - $K*$z_max";
//y1_max #calc "$y_max + 2.5*$K*$z_max";
//z1_min $z_min;
//z1_max #calc "$z_max + 0.5*$K*$z_max";

// box 2
//x2_min #calc "$x_min + 0.15*$K*$z_max";
//x2_max #calc "$x_max + 0.5*$K*$z_max";
//y2_min #calc "$y_min";
//y2_max #calc "$y_max + 2.5*$K*$z_max";
//z2_min $z_min;
//z2_max #calc "$z_max + 0.5*$K*$z_max";


// box 3
//x3_min #calc "$x_min - 1.5*$K*$z_max";
//x3_max #calc "$x_max + 2.5*$K*$z_max";
//y3_min #calc "$y_min - 3.5*$K*$z_max";
//y3_max #calc "$y_max + 6*$K*$z_max";
//z3_min $z_min;
//z3_max #calc "$z_max + $K*$z_max";

// box 4
//x4_min #calc "$x_min - 15*$z_max"; 
//x4_max #calc "$x_max + 15*$z_max"; 
//y4_min #calc "$y_min - 15*$z_max"; 
//y4_max #calc "$y_max + 15*$z_max";
//z4_min $z_min;                       
//z4_max 5; 


// Which of the steps to run
castellatedMesh true;
snap            true;
addLayers       false;


// Geometry. Definition of all surfaces. All surfaces are of class
// searchableSurface.
// Surfaces are used
// - to specify refinement for any mesh cell intersecting it
// - to specify refinement for any mesh cell inside/outside/near
// - to 'snap' the mesh boundary to the surface
geometry
{
   buildings.stl
   {
	type triSurfaceMesh;
	name buildings;
   }

   floor.stl
   {
	type triSurfaceMesh;
	name floor;
   }

   box1
    {
        type searchableBox;
        min (1830 1645 10);
        max (2225 2160 76);
    }

    box2
    {
        type searchableBox;
        min (1481 1375 10);
        max (2738 2740 114);
    }

    box3
    {
        type searchableBox;
        min (1315 1215 10);
        max (2835 3050 152);
    }
}
//   box4
//    {
//        type searchableBox;
//        min (1020 925 10);
//        max (3150 3900 30);
//    }




// Settings for the castellatedMesh generation.
castellatedMeshControls
{

    maxLocalCells 10000000;   //max number of cells per processor during refinment
    maxGlobalCells 40000000;  //overall cell limit during refinmnet (before removal)
    minRefinementCells 0;     //if minRefinmentCells >= number of cells to be refined, surface refinment stops 
    maxLoadUnbalance 0.10;    
    nCellsBetweenLevels 3;    //number of buffer layers of cells between successive level of refinment (typically set to 3)
    features
    (
	{
        file "buildings.eMesh";
        level 3;
        }
	
	{
	file "floor.eMesh";
	level 2;
	}

	
    );

    refinementSurfaces
    {
        buildings
        {
        
	    level (4 4);   //default (min max) refinment for whole surface 
            patchInfo
            {
                type wall;

            }
        }

	floor
	{   
            level (3 3);
	    patchInfo
            {
		type wall;
	    }

        }

	//- Optional angle to detect small-large cell situation
                    //  perpendicular to the surface. Is the angle of face w.r.t.
                    //  the local surface normal. Use on flat(ish) surfaces only.
                    //  Otherwise leave out or set to negative number.
                    // perpendicularAngle 10;


                    //- Optional faceZone and (for closed surface) cellZone with
                    //  how to select the cells that are in the cellZone
                    //  (inside / outside / specified insidePoint)
                    // faceZone sphere;
                    //
    }

    resolveFeatureAngle 10;

    refinementRegions
    {
        box1
        {
            mode inside;
            levels ((1E15 3));
        }

        box2
        {
            mode inside;
            levels ((1E15 2));
        }

        box3
        {
            mode inside;
            levels ((1E15 1));
        }

//        box4
//        {
//           mode inside;
//           levels ((1E15 3));
//        }

    }

    locationInMesh (1986.97 1912.22 35);
    allowFreeStandingZoneFaces true;
}

// Settings for the snapping.
snapControls
{
    nSmoothPatch 1;
    tolerance 4.0; 
    nSolveIter 50;
    nRelaxIter 5;
    // Feature snapping

    //- Number of feature edge snapping iterations.
    //  Leave out altogether to disable.
    nFeatureSnapIter 10;

    //- Detect (geometric only) features by sampling the surface
    //  (default=false).
    implicitFeatureSnap false;

    //- Use castellatedMeshControls::features (default = true)
    explicitFeatureSnap true;

    //- Detect points on multiple surfaces (only for explicitFeatureSnap)
    multiRegionFeatureSnap false;
}



// Settings for the layer addition.
addLayersControls
{
    // Are the thickness parameters below relative to the undistorted
    // size of the refined cell outside layer (true) or absolute sizes (false).
    relativeSizes false;

    // Layer thickness specification. This can be specified in one of following
    // ways:
    // - expansionRatio and finalLayerThickness (cell nearest internal mesh)
    // - expansionRatio and firstLayerThickness (cell on surface)
    // - overall thickness and firstLayerThickness
    // - overall thickness and finalLayerThickness
    // - overall thickness and expansionRatio
    //
    // Note: the mode thus selected is global, i.e. one cannot override the
    //       mode on a per-patch basis (only the values can be overridden)

    // Expansion factor for layer mesh
    expansionRatio 1.0;

    // Wanted thickness of the layer furthest away from the wall.
    // If relativeSizes this is relative to undistorted size of cell
    // outside layer.
    //finalLayerThickness 0.3;

    // Wanted thickness of the layer next to the wall.
    // If relativeSizes this is relative to undistorted size of cell
    // outside layer.
    firstLayerThickness 0.4;

    // Wanted overall thickness of layers.
    // If relativeSizes this is relative to undistorted size of cell
    // outside layer.
    // thickness 0.5

    // Minimum overall thickness of total layers. If for any reason layer
    // cannot be above minThickness do not add layer.
    // If relativeSizes this is relative to undistorted size of cell
    // outside layer..
    minThickness 0.4;


    // Per final patch (so not geometry!) the layer information
    // Note: This behaviour changed after 21x. Any non-mentioned patches
    //       now slide unless:
    //          - nSurfaceLayers is explicitly mentioned to be 0.
    //          - angle to nearest surface < slipFeatureAngle (see below)
    layers
    {
        terrain
        {
            nSurfaceLayers 2;

        }
        /*maxY
        {
            nSurfaceLayers 1;
            // Per patch layer data
            expansionRatio      1.3;
            finalLayerThickness 0.3;
            minThickness        0.1;
        }*/

        // Disable any mesh shrinking and layer addition on any point of
        // a patch by setting nSurfaceLayers to 0
        //frozenPatches
        //{
        //    nSurfaceLayers 0;
        //}
    }

    // If points get not extruded do nGrow layers of connected faces that are
    // also not grown. This helps convergence of the layer addition process
    // close to features.
    // Note: changed(corrected) w.r.t 17x! (didn't do anything in 17x)
    nGrow 0;

    // Advanced settings

    // Static analysis of starting mesh

    // When not to extrude surface. 0 is flat surface, 90 is when two faces
    // are perpendicular
    featureAngle 45;

    // Stop layer growth on highly warped cells
    maxFaceThicknessRatio 0.5;


    // Patch displacement

    // Number of smoothing iterations of surface normals
    nSmoothSurfaceNormals 1;

    // Smooth layer thickness over surface patches
    nSmoothThickness 10;

    // Medial axis analysis

    // Angle used to pick up medial axis points
    // Note: changed(corrected) w.r.t 17x! 90 degrees corresponds to 130
    // in 17x.
    minMedialAxisAngle 90;

    // Reduce layer growth where ratio thickness to medial
    // distance is large
    maxThicknessToMedialRatio 0.3;

    // Number of smoothing iterations of interior mesh movement direction
    nSmoothNormals 3;

    // Optional: limit the number of steps walking away from the surface.
    // Default is unlimited.
    // nMedialAxisIter 10;

    // Optional: smooth displacement after medial axis determination.
    // default is 0.
    // nSmoothDisplacement 90;

    // (wip)Optional: do not extrude a point if none of the surrounding points is
    // not extruded. Default is false.
    // detectExtrusionIsland true;

    // Mesh shrinking

    // Optional: at non-patched sides allow mesh to slip if extrusion
    // direction makes angle larger than slipFeatureAngle. Default is
    // 0.5*featureAngle.
    slipFeatureAngle 30;

    // Maximum number of snapping relaxation iterations. Should stop
    // before upon reaching a correct mesh.
    nRelaxIter 5;

    // Create buffer region for new layer terminations
    nBufferCellsNoExtrude 0;

    // Overall max number of layer addition iterations. The mesher will
    // exit if it reaches this number of iterations; possibly with an
    // illegal mesh.
    nLayerIter 50;

    // Max number of iterations after which relaxed meshQuality controls
    // get used. Up to nRelaxedIter it uses the settings in
    // meshQualityControls,
    // after nRelaxedIter it uses the values in
    // meshQualityControls::relaxed.
    nRelaxedIter 20;

    // Additional reporting: if there are just a few faces where there
    // are mesh errors (after adding the layers) print their face centres.
    // This helps in tracking down problematic mesh areas.
    // additionalReporting true;

}


// Generic mesh quality settings. At any undoable phase these determine
// where to undo.
meshQualityControls
{
    maxNonOrtho 65;
    maxBoundarySkewness 4;
    maxInternalSkewness 4;
    maxConcave 80;
    minVol 1e-13;
    minTetQuality 1e-30;
    minArea -1;
    minTwist 0.05;
    minDeterminant 0.001;
    minFaceWeight 0.05;
    minVolRatio 0.01;
    minTriangleTwist -1;
    // minVolCollapseRatio 0.5;
    nSmoothScale 4;
    errorReduction 0.75;
    relaxed
    {
        maxNonOrtho 75;
    }
}


// Advanced
mergeTolerance 1e-6;


// ************************************************************************* //
