/*--------------------------------*- C++ -*----------------------------------*\
  =========                 |
  \\      /  F ield         | OpenFOAM: The Open Source CFD Toolbox
   \\    /   O peration     | Website:  https://openfoam.org
    \\  /    A nd           | Version:  7
     \\/     M anipulation  |
\*---------------------------------------------------------------------------*/
FoamFile
{
    version     2.0;
    format      binary;
    class       polyBoundaryMesh;
    location    "constant/polyMesh";
    object      boundary;
}
// * * * * * * * * * * * * * * * * * * * * * * * * * * * * * * * * * * * * * //

6
(
    x0
    {
        type            patch;
        nFaces          5643;
        startFace       2581772;
    }
    y0
    {
        type            patch;
        nFaces          4185;
        startFace       2587415;
    }
    x1
    {
        type            patch;
        nFaces          5643;
        startFace       2591600;
    }
    y1
    {
        type            patch;
        nFaces          4185;
        startFace       2597243;
    }
    terrain
    {
        type            wall;
        inGroups        List<word> 1(wall);
        nFaces          32395;
        startFace       2601428;
    }
    sky
    {
        type            symmetry;
        inGroups        List<word> 1(symmetry);
        nFaces          32395;
        startFace       2633823;
    }
)

// ************************************************************************* //
